/*--------------------------------*- C++ -*----------------------------------*\
| =========                 |                                                 |
| \\      /  F ield         | OpenFOAM: The Open Source CFD Toolbox           |
|  \\    /   O peration     | Version:  v2012                                 |
|   \\  /    A nd           | Website:  www.openfoam.com                      |
|    \\/     M anipulation  |                                                 |
\*---------------------------------------------------------------------------*/
FoamFile
{
    version     2.0;
    format      ascii;
    class       dictionary;
    object      blockMeshDict;
}
// * * * * * * * * * * * * * * * * * * * * * * * * * * * * * * * * * * * * * //

scale   1;

// GEOMETRY INPUT
// Main box
xmin 0.00;
xmax 10.00;
ymin 0.00;
ymax 2.70;
zmin 0.00;
zmax 5.50;

// Inlet 
xminI 1.00;
xmaxI 1.80;
yminI -0.20;
ymaxI 0.00;
zminI 1.00;
zmaxI 1.50;

// Outlet 
xminO 8.50;
xmaxO 9.00;
yminO 2.70;
ymaxO 2.90;
zminO 4.10;
zmaxO 4.50;

// Bottom box
xminBB 0.00;
xmaxBB 2.80;
yminBB -1.20;
ymaxBB -0.20;
zminBB 0.00;
zmaxBB 2.50;

// Top box
xminTB 0.00;
xmaxTB 10.00;
yminTB 2.90;
ymaxTB 6.6;
zminTB 0.0;
zmaxTB 5.50;

// RESOLUTION 
//Main box 
Nx 100;
Ny  27;
Nz  55;

//Inlet
NxI   8;
NyI   2;
NzI   5;

//Outlet
NxO   5;
NyO   2;
NzO   4;

//Bottom box 
NxBB  28;
NyBB  10;
NzBB  25;

//Top box 
NxTB  100;
NyTB  37;
NzTB  55;


vertices
(
    // Main Box
    ($xmin $ymin $zmin)
    ($xmax $ymin $zmin)
    ($xmax $ymax $zmin)
    ($xmin $ymax $zmin)
    ($xmin $ymin $zmax)
    ($xmax $ymin $zmax)
    ($xmax $ymax $zmax)
    ($xmin $ymax $zmax)
    // Inlet
    ($xminI $yminI $zminI)
    ($xmaxI $yminI $zminI)
    ($xmaxI $ymaxI $zminI)
    ($xminI $ymaxI $zminI)
    ($xminI $yminI $zmaxI)
    ($xmaxI $yminI $zmaxI)
    ($xmaxI $ymaxI $zmaxI)
    ($xminI $ymaxI $zmaxI)
    // Outlet
    ($xminO $yminO $zminO)
    ($xmaxO $yminO $zminO)
    ($xmaxO $ymaxO $zminO)
    ($xminO $ymaxO $zminO)
    ($xminO $yminO $zmaxO)
    ($xmaxO $yminO $zmaxO)
    ($xmaxO $ymaxO $zmaxO)
    ($xminO $ymaxO $zmaxO)
    // Bottom box
    ($xminBB $yminBB $zminBB)
    ($xmaxBB $yminBB $zminBB)
    ($xmaxBB $ymaxBB $zminBB)
    ($xminBB $ymaxBB $zminBB)
    ($xminBB $yminBB $zmaxBB)
    ($xmaxBB $yminBB $zmaxBB)
    ($xmaxBB $ymaxBB $zmaxBB)
    ($xminBB $ymaxBB $zmaxBB)
    // Top box
    ($xminTB $yminTB $zminTB)
    ($xmaxTB $yminTB $zminTB)
    ($xmaxTB $ymaxTB $zminTB)
    ($xminTB $ymaxTB $zminTB)
    ($xminTB $yminTB $zmaxTB)
    ($xmaxTB $yminTB $zmaxTB)
    ($xmaxTB $ymaxTB $zmaxTB)
    ($xminTB $ymaxTB $zmaxTB)
    

);

blocks
(
    hex (0 1 2 3 4 5 6 7) ($Nx $Ny $Nz) simpleGrading (1 1 1)
    hex (8 9 10 11 12 13 14 15) ($NxI $NyI $NzI) simpleGrading (1 1 1)
    hex (16 17 18 19 20 21 22 23) ($NxO $NyO $NzO) simpleGrading (1 1 1)
    hex (24 25 26 27 28 29 30 31) ($NxBB $NyBB $NzBB) simpleGrading (1 1 1)
    hex (32 33 34 35 36 37 38 39) ($NxTB $NyTB $NzTB) simpleGrading (1 1 1)
 );
edges
(
);

boundary
(
    floor
    {
        type wall;
        faces
        (
            (0 1 5 4)
            
        );
    }

    ceiling
    {
        type wall;
        faces
        (
            (3 2 6 7)
        );
    }
    fixedWalls
    {
        type wall;
        faces
        (
            (0 4 7 3)
            (0 1 2 3) 
            (1 5 6 2) 
            (5 4 7 6)   
	); 
     }
    topInlet
    {
        type wall;
        faces
        (
            (11 10 14 15)
        );
    }
    bottomInlet
    {
        type wall;
        faces
        (
            (8 9 13 12)
        );
    }
    inletWalls
    {
        type wall;
        faces
        (
            (8 12 15 11) 
            (8 9 10 11) 
            (9 13 14 10) 
            (13 12 15 14)   
	); 
     }
     topOutlet
    {
        type wall;
        faces
        (
            (19 18 22 23)
        );
    }
    bottomOutlet
    {
        type wall;
        faces
        (
            (16 17 21 20)
        );
    }
    outletWalls
    {
        type wall;
        faces
        (
            (16 20 23 19) 
            (16 17 18 19) 
            (17 21 22 18) 
            (21 20 23 22)   
	); 
     }
    topBottomBox
    {
        type wall;
        faces
        (
            (27 26 30 31)
        );
    }
    bottomBottomBox
    {
        type patch;
        faces
        (
            (24 25 29 28)
        );
    }
    bottomBoxWalls
    {
        type wall;
        faces
        (
            (24 28 31 27) 
            (24 25 26 27) 
            (25 29 30 26) 
            (29 28 31 30)   
	); 
     }
    topTopBox
    {
        type patch;
        faces
        (
            (35 34 38 39)
        );
    }
    bottomTopBox
    {
        type wall;
        faces
        (
            (32 33 37 36)
        );
    }
    topBoxWalls
    {
        type wall;
        faces
        (
            (32 36 39 35) 
            (32 33 34 35) 
            (33 37 38 34) 
            (37 36 39 38)   
	); 
     }
);

mergePatchPairs
(
	(floor topInlet)
	(ceiling bottomOutlet)
	(topBottomBox bottomInlet)
	(bottomTopBox topOutlet)	
);

// ************************************************************************* //
