/*--------------------------------*- C++ -*----------------------------------*\
| =========                 |                                                 |
| \\      /  F ield         | OpenFOAM: The Open Source CFD Toolbox           |
|  \\    /   O peration     | Version:  v2012                                 |
|   \\  /    A nd           | Website:  www.openfoam.com                      |
|    \\/     M anipulation  |                                                 |
\*---------------------------------------------------------------------------*/
FoamFile
{
    version     2.0;
    format      ascii;
    class       dictionary;
    location    "system";
    object      fvSolution;
}
// * * * * * * * * * * * * * * * * * * * * * * * * * * * * * * * * * * * * * //

solvers
{
    "rho.*"
    {
        solver          PCG;
        preconditioner  DIC;
        tolerance       0;
        relTol          0;
    }

    p_rgh
    {
        solver          PCG;
        preconditioner  DIC;
        tolerance       1e-6;
        relTol          0.01;
    }

    p_rghFinal
    {
        $p_rgh;
        tolerance       1e-6;
        relTol          0;
    }

    "(U|h|k|omega)"
    {
        solver          smoothSolver;
        smoother        GaussSeidel;
        nSweeps         2;
        tolerance       1e-10;
        relTol          0.01;
    }

    "(U|h|k|omega)Final"
    {
        $U;
        tolerance       1e-10;
        relTol          0;
    }
    "(sb|s1|s2|s3|s4|s5|s6|s7|s8|s9|LMA)"
    {
        solver          smoothSolver;
        smoother        GaussSeidel;
        nSweeps         2;
        tolerance       1e-12;
        relTol          0.01;
    }

    "(sb|s1|s2|s3|s4|s5|s6|s7|s8|s9|LMA)Final"
    {
        $U;
        tolerance       1e-12;
        relTol          0;
    }
}

PIMPLE
{
    momentumPredictor yes;
    nOuterCorrectors 3;
    nCorrectors     1;
    nNonOrthogonalCorrectors 1;
    pRefCell        0;
    pRefValue       0;

}

relaxationFactors
{
    fields
    {
        p_rgh           1;
    }
    equations
    {
        U               1;
        h               1;
        "(k|omega|R)" 1;
	"(sb|s1|s2|s3|s4|s5|s6|s7|s8|s9|LMA)" 	1;
    }
}


// ************************************************************************* //
