/*--------------------------------*- C++ -*----------------------------------*\
| =========                 |                                                 |
| \\      /  F ield         | OpenFOAM: The Open Source CFD Toolbox           |
|  \\    /   O peration     | Version:  v2012                                 |
|   \\  /    A nd           | Website:  www.openfoam.com                      |
|    \\/     M anipulation  |                                                 |
\*---------------------------------------------------------------------------*/
FoamFile
{
    version     2.0;
    format      ascii;
    class       volScalarField;
    location    "0";
    object      omega;
}
// * * * * * * * * * * * * * * * * * * * * * * * * * * * * * * * * * * * * * //

dimensions      [0 0 -1 0 0 0 0];

internalField   uniform 0.12;

boundaryField
{
    floor
    {
        type            omegaWallFunction;
        value           uniform 0.12;
    }
    ceiling
    {
        type            omegaWallFunction;
        value           uniform 0.12;
    }
    fixedWalls
    {
        type            omegaWallFunction;
        value           uniform 0.12;
    }
    topTopBox
    {
        type            zeroGradient;
    }

    bottomBottomBox
    {
        type            zeroGradient;
    }
    inletWalls
    {
        type            omegaWallFunction;
        value           uniform 0.12;
    }
    outletWalls
    {
        type            omegaWallFunction;
        value           uniform 0.12;
    }
    topBottomBox
    {
        type            omegaWallFunction;
        value           uniform 0.12;
    }
    bottomBoxWalls
    {
        type            omegaWallFunction;
        value           uniform 0.12;
    }
    bottomTopBox
    {
        type            omegaWallFunction;
        value           uniform 0.12;
    }
    topBoxWalls
    {
        type            omegaWallFunction;
        value           uniform 0.12;
    }    

}

// ************************************************************************* //
