/*--------------------------------*- C++ -*----------------------------------*\
| =========                 |                                                 |
| \\      /  F ield         | OpenFOAM: The Open Source CFD Toolbox           |
|  \\    /   O peration     | Version:  v2012                                 |
|   \\  /    A nd           | Website:  www.openfoam.com                      |
|    \\/     M anipulation  |                                                 |
\*---------------------------------------------------------------------------*/
FoamFile
{
    version     2.0;
    format      ascii;
    class       volScalarField;
    object      T;
}
// * * * * * * * * * * * * * * * * * * * * * * * * * * * * * * * * * * * * * //

dimensions      [0 0 0 1 0 0 0];

internalField   uniform 278.15;

boundaryField
{
    floor
    {
        type            externalWallHeatFluxTemperature;

        mode            power;
        Q               6200;

        kappaMethod     fluidThermo;

        value           $internalField;

/*        type            zeroGradient;*/
    }

    bottomBottomBox
    {
        type            fixedValue;
        value           $internalField;
    }
    
    topTopBox 
    {
        type            inletOutlet; 
        inletValue	 $internalField;
        value 		 $internalField;  
    }

    ".*"
    {
        type            zeroGradient;
    }

}


// ************************************************************************* //
