/*--------------------------------*- C++ -*----------------------------------*\
| =========                 |                                                 |
| \\      /  F ield         | OpenFOAM: The Open Source CFD Toolbox           |
|  \\    /   O peration     | Version:  v2012                                 |
|   \\  /    A nd           | Website:  www.openfoam.com                      |
|    \\/     M anipulation  |                                                 |
\*---------------------------------------------------------------------------*/
FoamFile
{
    version     2.0;
    format      ascii;
    class       dictionary;
    location    "constant";
    object      thermophysicalProperties;
}
// * * * * * * * * * * * * * * * * * * * * * * * * * * * * * * * * * * * * * //

thermoType
{
    type            heRhoThermo;
    mixture         pureMixture;
    transport       const;
    thermo          hConst;
    equationOfState Boussinesq;
    specie          specie;
    energy          sensibleEnthalpy;
}

pRef            0;
dpdt		no;
mixture
{
    specie
    {
        molWeight       28.9;
    }
    thermodynamics
    {
        Cp              1005;
        Hf              0;
    }
    transport
    {
        mu               0.0000174;
        Pr              0.7;
    }
    equationOfState 
    {
        rho0             1.268;
        T0               278.15;
        beta             0.00362;
    }
}


// ************************************************************************* //
