/*--------------------------------*- C++ -*----------------------------------*\
| =========                 |                                                 |
| \\      /  F ield         | OpenFOAM: The Open Source CFD Toolbox           |
|  \\    /   O peration     | Version:  v2012                                 |
|   \\  /    A nd           | Website:  www.openfoam.com                      |
|    \\/     M anipulation  |                                                 |
\*---------------------------------------------------------------------------*/
FoamFile
{
    version     2.0;
    format      ascii;
    class       dictionary;
    location    "system";
    object      fvSolution;
}
// * * * * * * * * * * * * * * * * * * * * * * * * * * * * * * * * * * * * * //

solvers
{
    p_rgh
    {
        solver          PCG;
        preconditioner  DIC;
        tolerance       1e-12;
        relTol          0.0;
    }

    "(U|h|k|epsilon|omega|sb|s1|s2|s3|s4|s5|s6|s7|s8|s9|LMA)"
    {
        solver          smoothSolver;
        smoother        GaussSeidel;
        nSweeps         2;
        tolerance       1e-12;
        relTol          0.0;
    }
}

SIMPLE
{
    nNonOrthogonalCorrectors 1;
    pRefCell        0;
    pRefValue       0;

    residualControl
    {
        p_rgh           1e-6;
        U               1e-8;
        h               1e-6;

        // possibly check turbulence fields
        "(k|epsilon|omega)" 1e-4;
   }
}

relaxationFactors
{
    fields
    {
        p_rgh           0.7;
    }
    equations
    {
        U               0.2;
        h               0.5;
        "(k|omega|R)" 0.5;
	"(sb|s1|s2|s3|s4|s5|s6|s7|s8|s9|LMA)" 	0.3;
    }
}


// ************************************************************************* //
