/*--------------------------------*- C++ -*----------------------------------*\
| =========                 |                                                 |
| \\      /  F ield         | OpenFOAM: The Open Source CFD Toolbox           |
|  \\    /   O peration     | Version:  v2012                                 |
|   \\  /    A nd           | Website:  www.openfoam.com                      |
|    \\/     M anipulation  |                                                 |
\*---------------------------------------------------------------------------*/
FoamFile
{
    version     2.0;
    format      ascii;
    class       volScalarField;
    object      p_rgh;
}
// * * * * * * * * * * * * * * * * * * * * * * * * * * * * * * * * * * * * * //

dimensions      [1 -1 -2 0 0 0 0];

internalField   uniform 0;

boundaryField
{
    floor
    {
        type            fixedFluxPressure;
        value           $internalField;
    }

    ceiling
    {
        type            fixedFluxPressure;
        value           $internalField;
    }

    fixedWalls
    {
        type            fixedFluxPressure;
        value           $internalField;
    }

    bottomBottomBox
    {
        type            prghTotalPressure;
        p0              uniform 14.9268960;

    }

    topTopBox
    {
        type            prghTotalPressure;
        p0              uniform -82.0979280;
    }
    inletWalls
    {
        type            fixedFluxPressure;
        value           $internalField;
    }
    outletWalls
    {
        type            fixedFluxPressure;
        value           $internalField;
    }
    topBottomBox
    {
        type            fixedFluxPressure;
        value           $internalField;
    }
    bottomBoxWalls
    {
        type            fixedFluxPressure;
        value           $internalField;
    }
    bottomTopBox
    {
        type            fixedFluxPressure;
        value           $internalField;
    }
    topBoxWalls
    {
        type            fixedFluxPressure;
        value           $internalField;
    }    
   
}

// ************************************************************************* //
